tests/golden/phase8/export_elemcurrents.txt
Element, Nterminals, Nconductors, I_1, Ang_1, ...
"Vsource.source", 2, 3,     17.975,   179.10,    19.7445,    71.35,    22.2825,   -58.45,     17.975,    -0.90,    19.7445,  -108.65,    22.2825,   121.55
"Transformer.sub", 2, 4,     17.975,    -0.90,    19.7445,  -108.65,    22.2825,   121.55,          0,     0.00,    594.225,   151.31,    434.746,    38.70,    625.027,   -86.61,    159.665,    24.74
"Transformer.reg1", 2, 2,    594.225,   -28.69,    594.225,   151.31,     562.58,   151.31,     562.58,   -28.69
"Transformer.reg2", 2, 2,    434.746,  -141.30,    434.746,    38.70,    419.032,    38.70,    419.032,  -141.30
"Transformer.reg3", 2, 2,    625.027,    93.39,    625.027,   -86.61,    591.742,   -86.61,    591.742,    93.39
"Transformer.xfm1", 2, 4,    81.8938,   -37.79,    61.9324,  -159.14,    63.5692,    80.40,    19.8911,   151.30,    709.746,   142.21,    536.747,    20.86,    550.933,   -99.60,    172.389,   -28.70
"Capacitor.cap1", 2, 3,    81.2959,    84.38,    86.8217,   -32.57,    80.1869,  -154.00,    81.2959,   -95.62,    86.8217,   147.43,    80.1869,    26.00
"Capacitor.cap2", 2, 1,    40.0648,  -154.26,    40.0648,    25.74
"Line.650632", 2, 3,     562.58,   -28.69,    419.032,  -141.30,    591.742,    93.39,    562.581,   151.31,    419.032,    38.70,    591.742,   -86.61
"Line.632670", 2, 3,     481.89,   -27.15,    218.051,  -135.23,    480.267,    99.58,     481.89,   152.85,    218.051,    44.77,    480.267,   -80.42
"Line.670671", 2, 3,    473.769,   -27.04,     188.82,  -132.55,    424.902,   101.26,     473.77,   152.96,     188.82,    47.45,    424.902,   -78.74
"Line.671680", 2, 3, 0.000572288,    85.69, 0.000597515,   -32.92, 0.000572071,  -154.49, 2.57244E-12,   -45.00, 7.49989E-12,   -14.04,          0,     0.00
"Line.632633", 2, 3,    81.8936,   -37.79,    61.9322,  -159.14,     63.569,    80.40,    81.8938,   142.21,    61.9324,    20.86,    63.5692,   -99.60
"Line.632645", 2, 2,    64.3769,    57.77,    143.309,  -142.94,    64.3772,  -122.23,    143.309,    37.06
"Line.645646", 2, 2,    64.3772,    57.77,    64.3773,  -122.23,    64.3773,  -122.23,    64.3773,    57.77
"Line.692675", 2, 3,    206.842,    -5.54,    68.5074,   -55.92,    125.911,   110.79,    206.842,   174.45,     68.476,   124.07,    125.914,   -69.23
"Line.671684", 2, 2,     62.697,   -39.19,    71.1526,   121.17,    62.6971,   140.81,    71.1526,   -58.83
"Line.684611", 2, 1,    71.1526,   121.17,    71.1526,   -58.83
"Line.684652", 2, 1,    62.6971,   -39.19,    62.7147,   140.78
"Line.671692", 2, 3,    230.933,   -18.43,    68.5074,   -55.92,    180.301,   108.73,    230.933,   161.57,    68.5074,   124.08,    180.301,   -71.27
"Load.671", 1, 3,    185.383,   -33.66,     185.38,  -153.63,    185.468,    86.36
"Load.634a", 1, 2,    709.746,   -37.79,    709.746,   142.21
"Load.634b", 1, 2,    536.747,  -159.14,    536.747,    20.86
"Load.634c", 1, 2,    550.932,    80.40,    550.932,   -99.60
"Load.645", 1, 2,    86.1558,  -158.27,    86.1558,    21.73
"Load.646", 1, 2,    64.3773,  -122.23,    64.3773,    57.77
"Load.692", 1, 2,    54.6583,   103.99,    54.6583,   -76.01
"Load.675a", 1, 2,    222.147,   -27.02,    222.147,   152.98
"Load.675b", 1, 2,    36.2141,  -163.99,    36.2141,    16.01
"Load.675c", 1, 2,    155.321,    79.84,    155.321,  -100.16
"Load.611", 1, 2,    78.2846,    90.54,    78.2846,   -89.46
"Load.652", 1, 2,    62.7147,   -39.22,    62.7147,   140.78
"Load.670a", 1, 2,    8.17895,   -33.92,    8.17895,   146.08
"Load.670b", 1, 2,    30.7296,  -151.90,    30.7296,    28.10
"Load.670c", 1, 2,    56.9274,    86.94,    56.9274,   -93.06
